
#======================================================================
# CRYSTAL DATA
#----------------------------------------------------------------------
data_VESTA_phase_1

_chemical_name_common                  'Generated by VASPKIT code             '
_cell_length_a                         5.330831
_cell_length_b                         4.920802
_cell_length_c                         12.321853
_cell_angle_alpha                      90.000000
_cell_angle_beta                       105.940277
_cell_angle_gamma                      90.000000
_cell_volume                           310.797861
_space_group_name_H-M_alt              'P 1'
_space_group_IT_number                 1

loop_
_space_group_symop_operation_xyz
   'x, y, z'

loop_
   _atom_site_label
   _atom_site_occupancy
   _atom_site_fract_x
   _atom_site_fract_y
   _atom_site_fract_z
   _atom_site_adp_type
   _atom_site_U_iso_or_equiv
   _atom_site_type_symbol
   Al1        1.0     0.759139     0.500593     0.910003    Uiso  ? Al
   Al2        1.0     0.240861     0.499407     0.089997    Uiso  ? Al
   Al3        1.0     0.740861     0.000593     0.089997    Uiso  ? Al
   Al4        1.0     0.259140     0.999407     0.910003    Uiso  ? Al
   Al5        1.0     0.655112     0.472023     0.621865    Uiso  ? Al
   Al6        1.0     0.344888     0.527977     0.378135    Uiso  ? Al
   Al7        1.0     0.844888     0.972023     0.378135    Uiso  ? Al
   Al8        1.0     0.155112     0.027977     0.621865    Uiso  ? Al
   Ni1        1.0     0.500000     0.000000     0.500000    Uiso  ? Ni
   Ni2        1.0     -0.000000     0.500000     0.500000    Uiso  ? Ni
   Ni3        1.0     0.612799     0.998422     0.798533    Uiso  ? Ni
   Ni4        1.0     0.387201     0.001578     0.201467    Uiso  ? Ni
   Ni5        1.0     0.887201     0.498422     0.201467    Uiso  ? Ni
   Ni6        1.0     0.112799     0.501578     0.798533    Uiso  ? Ni
   O1         1.0     0.624293     0.835933     0.945789    Uiso  ? O
   O2         1.0     0.375707     0.164067     0.054211    Uiso  ? O
   O3         1.0     0.875707     0.335933     0.054211    Uiso  ? O
   O4         1.0     0.124293     0.664067     0.945789    Uiso  ? O
   O5         1.0     0.497289     0.849892     0.352964    Uiso  ? O
   O6         1.0     0.502711     0.150108     0.647036    Uiso  ? O
   O7         1.0     0.002711     0.349892     0.647036    Uiso  ? O
   O8         1.0     0.997289     0.650108     0.352964    Uiso  ? O
   O9         1.0     0.747801     0.644088     0.759876    Uiso  ? O
   O10        1.0     0.252199     0.355912     0.240124    Uiso  ? O
   O11        1.0     0.752199     0.144088     0.240124    Uiso  ? O
   O12        1.0     0.247801     0.855912     0.759876    Uiso  ? O
   O13        1.0     0.944375     0.196948     0.856935    Uiso  ? O
   O14        1.0     0.055625     0.803052     0.143065    Uiso  ? O
   O15        1.0     0.555625     0.696948     0.143065    Uiso  ? O
   O16        1.0     0.444375     0.303052     0.856935    Uiso  ? O
   O17        1.0     0.364691     0.663084     0.540524    Uiso  ? O
   O18        1.0     0.635309     0.336916     0.459476    Uiso  ? O
   O19        1.0     0.135309     0.163084     0.459476    Uiso  ? O
   O20        1.0     0.864691     0.836916     0.540524    Uiso  ? O
